omega_1
  -OEChem-09141622083D

 53 55  0     0  0  0  0  0  0999 V2000
   33.0917   25.1305   88.6711 C   0  0  0  0  0  0  0  0  0  0  0  0
   33.3483   27.1891   89.9094 C   0  0  0  0  0  0  0  0  0  0  0  0
   32.7561   25.8589   87.5299 C   0  0  0  0  0  0  0  0  0  0  0  0
   33.0128   27.9175   88.7682 C   0  0  0  0  0  0  0  0  0  0  0  0
   33.2467   22.4371   94.8408 C   0  0  0  0  0  0  0  0  0  0  0  0
   32.3607   22.4842   95.9154 C   0  0  0  0  0  0  0  0  0  0  0  0
   31.6964   23.7284   93.5369 C   0  0  0  0  0  0  0  0  0  0  0  0
   33.3877   25.7956   89.8609 C   0  0  0  0  0  0  0  0  0  0  0  0
   32.7167   27.2523   87.5784 C   0  0  0  0  0  0  0  0  0  0  0  0
   32.9178   23.0675   93.6524 C   0  0  0  0  0  0  0  0  0  0  0  0
   31.1248   23.1641   95.8322 C   0  0  0  0  0  0  0  0  0  0  0  0
   30.7709   23.7748   94.6036 C   0  0  0  0  0  0  0  0  0  0  0  0
   33.7421   25.0267   91.0671 C   0  0  0  0  0  0  0  0  0  0  0  0
   33.4499   23.7314   91.2559 C   0  0  0  0  0  0  0  0  0  0  0  0
   33.8412   23.0361   92.5297 C   0  0  0  0  0  0  0  0  0  0  0  0
   32.3683   28.0114   86.3877 C   0  0  0  0  0  0  0  0  0  0  0  0
   29.0757   24.2312   96.9045 C   0  0  0  0  0  0  0  0  0  0  0  0
   28.4330   24.1837   95.5287 C   0  0  0  0  0  0  0  0  0  0  0  0
   30.1989   23.1814   97.0552 C   0  0  0  0  0  0  0  0  0  0  0  0
   29.4419   24.5154   94.4068 C   0  0  0  0  0  0  0  0  0  0  0  0
   30.9626   23.5422   98.3518 C   0  0  0  0  0  0  0  0  0  0  0  0
   29.5837   21.7751   97.2301 C   0  0  0  0  0  0  0  0  0  0  0  0
   29.7207   26.0348   94.3832 C   0  0  0  0  0  0  0  0  0  0  0  0
   28.7572   24.1263   93.0747 C   0  0  0  0  0  0  0  0  0  0  0  0
   34.9411   22.4704   92.6257 O   0  0  0  0  0  0  0  0  0  0  0  0
   33.0913   28.8457   85.8335 O   0  0  0  0  0  0  0  0  0  0  0  0
   31.1264   27.7066   85.9211 O   0  0  0  0  0  0  0  0  0  0  0  0
   33.1183   24.0447   88.6180 H   0  0  0  0  0  0  0  0  0  0  0  0
   33.5772   27.7217   90.8293 H   0  0  0  0  0  0  0  0  0  0  0  0
   32.5277   25.3305   86.6075 H   0  0  0  0  0  0  0  0  0  0  0  0
   32.9852   29.0028   88.8170 H   0  0  0  0  0  0  0  0  0  0  0  0
   34.1894   21.9072   94.9487 H   0  0  0  0  0  0  0  0  0  0  0  0
   32.6502   21.9700   96.8283 H   0  0  0  0  0  0  0  0  0  0  0  0
   31.4672   24.2229   92.5952 H   0  0  0  0  0  0  0  0  0  0  0  0
   34.2617   25.5903   91.8385 H   0  0  0  0  0  0  0  0  0  0  0  0
   32.9085   23.1541   90.5158 H   0  0  0  0  0  0  0  0  0  0  0  0
   29.4696   25.2393   97.0850 H   0  0  0  0  0  0  0  0  0  0  0  0
   28.3040   24.0719   97.6688 H   0  0  0  0  0  0  0  0  0  0  0  0
   27.9969   23.1899   95.3673 H   0  0  0  0  0  0  0  0  0  0  0  0
   27.5905   24.8868   95.4995 H   0  0  0  0  0  0  0  0  0  0  0  0
   30.2655   23.5400   99.1795 H   0  0  0  0  0  0  0  0  0  0  0  0
   31.4005   24.5249   98.2366 H   0  0  0  0  0  0  0  0  0  0  0  0
   31.7382   22.8058   98.5163 H   0  0  0  0  0  0  0  0  0  0  0  0
   28.9290   21.7825   98.0928 H   0  0  0  0  0  0  0  0  0  0  0  0
   30.3817   21.0581   97.3773 H   0  0  0  0  0  0  0  0  0  0  0  0
   29.0203   21.5246   96.3398 H   0  0  0  0  0  0  0  0  0  0  0  0
   28.7848   26.5616   94.2443 H   0  0  0  0  0  0  0  0  0  0  0  0
   30.3949   26.2557   93.5650 H   0  0  0  0  0  0  0  0  0  0  0  0
   30.1724   26.3239   95.3240 H   0  0  0  0  0  0  0  0  0  0  0  0
   27.8286   24.6748   92.9867 H   0  0  0  0  0  0  0  0  0  0  0  0
   28.5618   23.0621   93.0808 H   0  0  0  0  0  0  0  0  0  0  0  0
   29.4180   24.3791   92.2560 H   0  0  0  0  0  0  0  0  0  0  0  0
   30.8821   28.2130   85.1172 H   0  0  0  0  0  0  0  0  0  0  0  0
  1  3  1  0  0  0  0
  1  8  2  0  0  0  0
  2  4  2  0  0  0  0
  2  8  1  0  0  0  0
  3  9  2  0  0  0  0
  4  9  1  0  0  0  0
  5  6  2  0  0  0  0
  5 10  1  0  0  0  0
  6 11  1  0  0  0  0
  7 10  2  0  0  0  0
  7 12  1  0  0  0  0
  8 13  1  0  0  0  0
  9 16  1  0  0  0  0
 10 15  1  0  0  0  0
 11 12  2  0  0  0  0
 11 19  1  0  0  0  0
 12 20  1  0  0  0  0
 13 14  2  0  0  0  0
 14 15  1  0  0  0  0
 15 25  2  0  0  0  0
 16 26  2  0  0  0  0
 16 27  1  0  0  0  0
 17 18  1  0  0  0  0
 17 19  1  0  0  0  0
 18 20  1  0  0  0  0
 19 21  1  0  0  0  0
 19 22  1  0  0  0  0
 20 23  1  0  0  0  0
 20 24  1  0  0  0  0
  1 28  1  0  0  0  0
  2 29  1  0  0  0  0
  3 30  1  0  0  0  0
  4 31  1  0  0  0  0
  5 32  1  0  0  0  0
  6 33  1  0  0  0  0
  7 34  1  0  0  0  0
 13 35  1  0  0  0  0
 14 36  1  0  0  0  0
 17 37  1  0  0  0  0
 17 38  1  0  0  0  0
 18 39  1  0  0  0  0
 18 40  1  0  0  0  0
 21 41  1  0  0  0  0
 21 42  1  0  0  0  0
 21 43  1  0  0  0  0
 22 44  1  0  0  0  0
 22 45  1  0  0  0  0
 22 46  1  0  0  0  0
 23 47  1  0  0  0  0
 23 48  1  0  0  0  0
 23 49  1  0  0  0  0
 24 50  1  0  0  0  0
 24 51  1  0  0  0  0
 24 52  1  0  0  0  0
 27 53  1  0  0  0  0
M  END
> <FRED Chemgauss4 score>
-5.261074

$$$$
