omega_1
  -OEChem-09141622033D

 53 55  0     0  0  0  0  0  0999 V2000
   33.2543   26.1245   90.5555 C   0  0  0  0  0  0  0  0  0  0  0  0
   33.1454   24.4676   88.8004 C   0  0  0  0  0  0  0  0  0  0  0  0
   33.3559   27.1329   89.5972 C   0  0  0  0  0  0  0  0  0  0  0  0
   33.2469   25.4760   87.8422 C   0  0  0  0  0  0  0  0  0  0  0  0
   31.9129   22.1945   95.6973 C   0  0  0  0  0  0  0  0  0  0  0  0
   30.9957   22.2688   96.7438 C   0  0  0  0  0  0  0  0  0  0  0  0
   30.4371   23.5195   94.3416 C   0  0  0  0  0  0  0  0  0  0  0  0
   33.1491   24.7918   90.1571 C   0  0  0  0  0  0  0  0  0  0  0  0
   33.3522   26.8087   88.2405 C   0  0  0  0  0  0  0  0  0  0  0  0
   31.6369   22.8281   94.4971 C   0  0  0  0  0  0  0  0  0  0  0  0
   29.7809   22.9798   96.6201 C   0  0  0  0  0  0  0  0  0  0  0  0
   29.4807   23.5941   95.3792 C   0  0  0  0  0  0  0  0  0  0  0  0
   33.0421   23.7260   91.1690 C   0  0  0  0  0  0  0  0  0  0  0  0
   32.6572   23.9193   92.4390 C   0  0  0  0  0  0  0  0  0  0  0  0
   32.5933   22.7683   93.4036 C   0  0  0  0  0  0  0  0  0  0  0  0
   33.4565   27.8607   87.2417 C   0  0  0  0  0  0  0  0  0  0  0  0
   27.7278   24.1035   97.6251 C   0  0  0  0  0  0  0  0  0  0  0  0
   27.1267   24.0666   96.2302 C   0  0  0  0  0  0  0  0  0  0  0  0
   28.8185   23.0259   97.8140 C   0  0  0  0  0  0  0  0  0  0  0  0
   28.1779   24.3676   95.1389 C   0  0  0  0  0  0  0  0  0  0  0  0
   29.5510   23.3725   99.1323 C   0  0  0  0  0  0  0  0  0  0  0  0
   28.1623   21.6365   97.9747 C   0  0  0  0  0  0  0  0  0  0  0  0
   28.4962   25.8792   95.1186 C   0  0  0  0  0  0  0  0  0  0  0  0
   27.5246   23.9905   93.7877 C   0  0  0  0  0  0  0  0  0  0  0  0
   33.3602   21.8010   93.2807 O   0  0  0  0  0  0  0  0  0  0  0  0
   33.5527   29.0688   87.4815 O   0  0  0  0  0  0  0  0  0  0  0  0
   33.4393   27.3747   85.9703 O   0  0  0  0  0  0  0  0  0  0  0  0
   33.2585   26.3924   91.6093 H   0  0  0  0  0  0  0  0  0  0  0  0
   33.0635   23.4337   88.4744 H   0  0  0  0  0  0  0  0  0  0  0  0
   33.4368   28.1683   89.9187 H   0  0  0  0  0  0  0  0  0  0  0  0
   33.2429   25.2125   86.7878 H   0  0  0  0  0  0  0  0  0  0  0  0
   32.8378   21.6411   95.8360 H   0  0  0  0  0  0  0  0  0  0  0  0
   31.2437   21.7512   97.6670 H   0  0  0  0  0  0  0  0  0  0  0  0
   30.2497   24.0156   93.3917 H   0  0  0  0  0  0  0  0  0  0  0  0
   33.3182   22.7320   90.8246 H   0  0  0  0  0  0  0  0  0  0  0  0
   32.4040   24.9033   92.8158 H   0  0  0  0  0  0  0  0  0  0  0  0
   28.1418   25.1019   97.8142 H   0  0  0  0  0  0  0  0  0  0  0  0
   26.9292   23.9672   98.3658 H   0  0  0  0  0  0  0  0  0  0  0  0
   26.6704   23.0835   96.0590 H   0  0  0  0  0  0  0  0  0  0  0  0
   26.3039   24.7908   96.1727 H   0  0  0  0  0  0  0  0  0  0  0  0
   28.8290   23.3917   99.9380 H   0  0  0  0  0  0  0  0  0  0  0  0
   30.0174   24.3433   99.0273 H   0  0  0  0  0  0  0  0  0  0  0  0
   30.3020   22.6173   99.3231 H   0  0  0  0  0  0  0  0  0  0  0  0
   27.4818   21.6644   98.8167 H   0  0  0  0  0  0  0  0  0  0  0  0
   28.9368   20.9001   98.1489 H   0  0  0  0  0  0  0  0  0  0  0  0
   27.6203   21.3967   97.0683 H   0  0  0  0  0  0  0  0  0  0  0  0
   27.5789   26.4293   94.9492 H   0  0  0  0  0  0  0  0  0  0  0  0
   29.2007   26.0794   94.3209 H   0  0  0  0  0  0  0  0  0  0  0  0
   28.9261   26.1606   96.0719 H   0  0  0  0  0  0  0  0  0  0  0  0
   26.6136   24.5622   93.6691 H   0  0  0  0  0  0  0  0  0  0  0  0
   27.3019   22.9317   93.7914 H   0  0  0  0  0  0  0  0  0  0  0  0
   28.2167   24.2228   92.9888 H   0  0  0  0  0  0  0  0  0  0  0  0
   33.5101   28.0767   85.2887 H   0  0  0  0  0  0  0  0  0  0  0  0
  1  3  1  0  0  0  0
  1  8  2  0  0  0  0
  2  4  2  0  0  0  0
  2  8  1  0  0  0  0
  3  9  2  0  0  0  0
  4  9  1  0  0  0  0
  5  6  2  0  0  0  0
  5 10  1  0  0  0  0
  6 11  1  0  0  0  0
  7 10  2  0  0  0  0
  7 12  1  0  0  0  0
  8 13  1  0  0  0  0
  9 16  1  0  0  0  0
 10 15  1  0  0  0  0
 11 12  2  0  0  0  0
 11 19  1  0  0  0  0
 12 20  1  0  0  0  0
 13 14  2  0  0  0  0
 14 15  1  0  0  0  0
 15 25  2  0  0  0  0
 16 26  2  0  0  0  0
 16 27  1  0  0  0  0
 17 18  1  0  0  0  0
 17 19  1  0  0  0  0
 18 20  1  0  0  0  0
 19 21  1  0  0  0  0
 19 22  1  0  0  0  0
 20 23  1  0  0  0  0
 20 24  1  0  0  0  0
  1 28  1  0  0  0  0
  2 29  1  0  0  0  0
  3 30  1  0  0  0  0
  4 31  1  0  0  0  0
  5 32  1  0  0  0  0
  6 33  1  0  0  0  0
  7 34  1  0  0  0  0
 13 35  1  0  0  0  0
 14 36  1  0  0  0  0
 17 37  1  0  0  0  0
 17 38  1  0  0  0  0
 18 39  1  0  0  0  0
 18 40  1  0  0  0  0
 21 41  1  0  0  0  0
 21 42  1  0  0  0  0
 21 43  1  0  0  0  0
 22 44  1  0  0  0  0
 22 45  1  0  0  0  0
 22 46  1  0  0  0  0
 23 47  1  0  0  0  0
 23 48  1  0  0  0  0
 23 49  1  0  0  0  0
 24 50  1  0  0  0  0
 24 51  1  0  0  0  0
 24 52  1  0  0  0  0
 27 53  1  0  0  0  0
M  END
> <FRED Chemgauss4 score>
-5.886557

$$$$
